@<TRIPOS>MOLECULE
OXL
    2     1     1     0     0
SMALL
bcc


@<TRIPOS>ATOM
      1 O           -3.7080     2.0880    -0.0040 o          1 UNL       0.000000
      2 O1          -2.5570     2.0930    -0.0040 o          1 UNL      -0.000000
@<TRIPOS>BOND
     1     1     2 2   
@<TRIPOS>SUBSTRUCTURE
     1 OXL         1 TEMP              0 ****  ****    0 ROOT
